src/distribution_data/p1rhs0_1247/Master.dss
Clear

New Circuit.substation_p1rhs0_69 bus1=p1rhs0_69 pu=1.0 basekV=69.0 R1=1e-05 X1=1e-05 R0=1e-05 X0=1e-05

Redirect p1rhs0_1247--p1rdt6854/Transformers.dss
Redirect Transformers.dss
Redirect p1rhs0_1247--p1rdt5663/Transformers.dss
! Redirect Regulators.dss
Redirect p1rhs0_1247--p1rdt6854/Loads.dss
Redirect p1rhs0_1247--p1rdt5663/Loads.dss
Redirect p1rhs0_1247--p1rdt6854/LineCodes.dss
Redirect LineCodes.dss
Redirect p1rhs0_1247--p1rdt5663/LineCodes.dss
Redirect p1rhs0_1247--p1rdt6854/Lines.dss
Redirect Lines.dss
Redirect p1rhs0_1247--p1rdt5663/Lines.dss

Set Voltagebases=[0.2080002494301389, 0.48, 7.199560000000001, 12.47, 69.0]

Calcvoltagebases

Buscoords Buscoords.dss

Solve